*SPEF "ieee 1481-1999"
*DESIGN "core_cells"
*DATE "11:11:11 Fri 11 11, 1111"
*VENDOR "OpenRCX"
*PROGRAM "Parallel Extraction"
*VERSION "1.0"
*DESIGN_FLOW "NAME_SCOPE LOCAL" "PIN_CAP NONE"
*DIVIDER /
*DELIMITER :
*BUS_DELIMITER []
*T_UNIT 1 NS
*C_UNIT 1 PF
*R_UNIT 1 OHM
*L_UNIT 1 HENRY

*NAME_MAP
*1 clk
*2 enable
*3 out1[0]
*4 out1[1]
*5 out1[2]
*6 out1[3]
*7 out2
*8 reset
*11 _0_
*12 _1_
*13 _2_
*14 clknet_0_clk
*15 clknet_1_0__leaf_clk
*16 clknet_1_1__leaf_clk
*17 net1
*18 net2
*19 net3
*20 net4
*21 net5
*22 net6
*23 net7
*24 out_c2\[0\]
*25 out_c2\[1\]
*26 out_c2\[2\]
*27 out_c2\[3\]
*28 ANTENNA_0
*29 ANTENNA_1
*30 ANTENNA_10
*31 ANTENNA_11
*32 ANTENNA_12
*33 ANTENNA_13
*34 ANTENNA_14
*35 ANTENNA_15
*36 ANTENNA_16
*37 ANTENNA_17
*38 ANTENNA_18
*39 ANTENNA_19
*40 ANTENNA_2
*41 ANTENNA_20
*42 ANTENNA_3
*43 ANTENNA_4
*44 ANTENNA_5
*45 ANTENNA_6
*46 ANTENNA_7
*47 ANTENNA_8
*48 ANTENNA_9
*49 FILLER_0_1005
*50 FILLER_0_1009
*51 FILLER_0_1021
*52 FILLER_0_1029
*53 FILLER_0_1034
*54 FILLER_0_1037
*55 FILLER_0_1041
*56 FILLER_0_1044
*57 FILLER_0_1055
*58 FILLER_0_109
*59 FILLER_0_11
*60 FILLER_0_113
*61 FILLER_0_125
*62 FILLER_0_137
*63 FILLER_0_141
*64 FILLER_0_153
*65 FILLER_0_165
*66 FILLER_0_169
*67 FILLER_0_181
*68 FILLER_0_193
*69 FILLER_0_197
*70 FILLER_0_209
*71 FILLER_0_221
*72 FILLER_0_225
*73 FILLER_0_23
*74 FILLER_0_237
*75 FILLER_0_249
*76 FILLER_0_253
*77 FILLER_0_265
*78 FILLER_0_27
*79 FILLER_0_277
*80 FILLER_0_281
*81 FILLER_0_29
*82 FILLER_0_293
*83 FILLER_0_305
*84 FILLER_0_309
*85 FILLER_0_321
*86 FILLER_0_333
*87 FILLER_0_337
*88 FILLER_0_349
*89 FILLER_0_361
*90 FILLER_0_365
*91 FILLER_0_377
*92 FILLER_0_389
*93 FILLER_0_393
*94 FILLER_0_405
*95 FILLER_0_41
*96 FILLER_0_417
*97 FILLER_0_421
*98 FILLER_0_433
*99 FILLER_0_445
*100 FILLER_0_449
*101 FILLER_0_461
*102 FILLER_0_473
*103 FILLER_0_477
*104 FILLER_0_489
*105 FILLER_0_501
*106 FILLER_0_505
*107 FILLER_0_513
*108 FILLER_0_518
*109 FILLER_0_53
*110 FILLER_0_530
*111 FILLER_0_533
*112 FILLER_0_545
*113 FILLER_0_557
*114 FILLER_0_561
*115 FILLER_0_57
*116 FILLER_0_573
*117 FILLER_0_585
*118 FILLER_0_589
*119 FILLER_0_601
*120 FILLER_0_613
*121 FILLER_0_617
*122 FILLER_0_629
*123 FILLER_0_641
*124 FILLER_0_645
*125 FILLER_0_657
*126 FILLER_0_669
*127 FILLER_0_673
*128 FILLER_0_685
*129 FILLER_0_69
*130 FILLER_0_697
*131 FILLER_0_7
*132 FILLER_0_701
*133 FILLER_0_713
*134 FILLER_0_725
*135 FILLER_0_729
*136 FILLER_0_741
*137 FILLER_0_753
*138 FILLER_0_757
*139 FILLER_0_769
*140 FILLER_0_781
*141 FILLER_0_785
*142 FILLER_0_797
*143 FILLER_0_809
*144 FILLER_0_81
*145 FILLER_0_813
*146 FILLER_0_825
*147 FILLER_0_837
*148 FILLER_0_841
*149 FILLER_0_85
*150 FILLER_0_853
*151 FILLER_0_865
*152 FILLER_0_869
*153 FILLER_0_881
*154 FILLER_0_893
*155 FILLER_0_897
*156 FILLER_0_909
*157 FILLER_0_921
*158 FILLER_0_925
*159 FILLER_0_937
*160 FILLER_0_949
*161 FILLER_0_953
*162 FILLER_0_965
*163 FILLER_0_97
*164 FILLER_0_977
*165 FILLER_0_981
*166 FILLER_0_993
*167 FILLER_100_1005
*168 FILLER_100_1017
*169 FILLER_100_1029
*170 FILLER_100_1035
*171 FILLER_100_1037
*172 FILLER_100_1049
*173 FILLER_100_1057
*174 FILLER_100_109
*175 FILLER_100_121
*176 FILLER_100_133
*177 FILLER_100_139
*178 FILLER_100_141
*179 FILLER_100_15
*180 FILLER_100_153
*181 FILLER_100_165
*182 FILLER_100_177
*183 FILLER_100_189
*184 FILLER_100_195
*185 FILLER_100_197
*186 FILLER_100_209
*187 FILLER_100_221
*188 FILLER_100_233
*189 FILLER_100_245
*190 FILLER_100_251
*191 FILLER_100_253
*192 FILLER_100_265
*193 FILLER_100_27
*194 FILLER_100_277
*195 FILLER_100_289
*196 FILLER_100_29
*197 FILLER_100_3
*198 FILLER_100_301
*199 FILLER_100_307
*200 FILLER_100_309
*201 FILLER_100_321
*202 FILLER_100_333
*203 FILLER_100_345
*204 FILLER_100_357
*205 FILLER_100_363
*206 FILLER_100_365
*207 FILLER_100_377
*208 FILLER_100_389
*209 FILLER_100_401
*210 FILLER_100_41
*211 FILLER_100_413
*212 FILLER_100_419
*213 FILLER_100_421
*214 FILLER_100_433
*215 FILLER_100_445
*216 FILLER_100_457
*217 FILLER_100_469
*218 FILLER_100_475
*219 FILLER_100_477
*220 FILLER_100_489
*221 FILLER_100_501
*222 FILLER_100_513
*223 FILLER_100_525
*224 FILLER_100_53
*225 FILLER_100_531
*226 FILLER_100_533
*227 FILLER_100_545
*228 FILLER_100_557
*229 FILLER_100_569
*230 FILLER_100_581
*231 FILLER_100_587
*232 FILLER_100_589
*233 FILLER_100_601
*234 FILLER_100_613
*235 FILLER_100_625
*236 FILLER_100_637
*237 FILLER_100_643
*238 FILLER_100_645
*239 FILLER_100_65
*240 FILLER_100_657
*241 FILLER_100_669
*242 FILLER_100_681
*243 FILLER_100_693
*244 FILLER_100_699
*245 FILLER_100_701
*246 FILLER_100_713
*247 FILLER_100_725
*248 FILLER_100_737
*249 FILLER_100_749
*250 FILLER_100_755
*251 FILLER_100_757
*252 FILLER_100_769
*253 FILLER_100_77
*254 FILLER_100_781
*255 FILLER_100_793
*256 FILLER_100_805
*257 FILLER_100_811
*258 FILLER_100_813
*259 FILLER_100_825
*260 FILLER_100_83
*261 FILLER_100_837
*262 FILLER_100_849
*263 FILLER_100_85
*264 FILLER_100_861
*265 FILLER_100_867
*266 FILLER_100_869
*267 FILLER_100_881
*268 FILLER_100_893
*269 FILLER_100_905
*270 FILLER_100_917
*271 FILLER_100_923
*272 FILLER_100_925
*273 FILLER_100_937
*274 FILLER_100_949
*275 FILLER_100_961
*276 FILLER_100_97
*277 FILLER_100_973
*278 FILLER_100_979
*279 FILLER_100_981
*280 FILLER_100_993
*281 FILLER_101_1001
*282 FILLER_101_1007
*283 FILLER_101_1009
*284 FILLER_101_1021
*285 FILLER_101_1033
*286 FILLER_101_1045
*287 FILLER_101_105
*288 FILLER_101_1057
*289 FILLER_101_111
*290 FILLER_101_113
*291 FILLER_101_125
*292 FILLER_101_137
*293 FILLER_101_149
*294 FILLER_101_15
*295 FILLER_101_161
*296 FILLER_101_167
*297 FILLER_101_169
*298 FILLER_101_181
*299 FILLER_101_193
*300 FILLER_101_205
*301 FILLER_101_217
*302 FILLER_101_223
*303 FILLER_101_225
*304 FILLER_101_237
*305 FILLER_101_249
*306 FILLER_101_261
*307 FILLER_101_27
*308 FILLER_101_273
*309 FILLER_101_279
*310 FILLER_101_281
*311 FILLER_101_293
*312 FILLER_101_3
*313 FILLER_101_305
*314 FILLER_101_317
*315 FILLER_101_329
*316 FILLER_101_335
*317 FILLER_101_337
*318 FILLER_101_349
*319 FILLER_101_361
*320 FILLER_101_373
*321 FILLER_101_385
*322 FILLER_101_39
*323 FILLER_101_391
*324 FILLER_101_393
*325 FILLER_101_405
*326 FILLER_101_417
*327 FILLER_101_429
*328 FILLER_101_441
*329 FILLER_101_447
*330 FILLER_101_449
*331 FILLER_101_461
*332 FILLER_101_473
*333 FILLER_101_485
*334 FILLER_101_497
*335 FILLER_101_503
*336 FILLER_101_505
*337 FILLER_101_51
*338 FILLER_101_517
*339 FILLER_101_529
*340 FILLER_101_541
*341 FILLER_101_55
*342 FILLER_101_553
*343 FILLER_101_559
*344 FILLER_101_561
*345 FILLER_101_57
*346 FILLER_101_573
*347 FILLER_101_585
*348 FILLER_101_597
*349 FILLER_101_609
*350 FILLER_101_615
*351 FILLER_101_617
*352 FILLER_101_629
*353 FILLER_101_641
*354 FILLER_101_653
*355 FILLER_101_665
*356 FILLER_101_671
*357 FILLER_101_673
*358 FILLER_101_685
*359 FILLER_101_69
*360 FILLER_101_697
*361 FILLER_101_709
*362 FILLER_101_721
*363 FILLER_101_727
*364 FILLER_101_729
*365 FILLER_101_741
*366 FILLER_101_753
*367 FILLER_101_765
*368 FILLER_101_777
*369 FILLER_101_783
*370 FILLER_101_785
*371 FILLER_101_797
*372 FILLER_101_809
*373 FILLER_101_81
*374 FILLER_101_821
*375 FILLER_101_833
*376 FILLER_101_839
*377 FILLER_101_841
*378 FILLER_101_853
*379 FILLER_101_865
*380 FILLER_101_877
*381 FILLER_101_889
*382 FILLER_101_895
*383 FILLER_101_897
*384 FILLER_101_909
*385 FILLER_101_921
*386 FILLER_101_93
*387 FILLER_101_933
*388 FILLER_101_945
*389 FILLER_101_951
*390 FILLER_101_953
*391 FILLER_101_965
*392 FILLER_101_977
*393 FILLER_101_989
*394 FILLER_102_1005
*395 FILLER_102_1017
*396 FILLER_102_1029
*397 FILLER_102_1035
*398 FILLER_102_1037
*399 FILLER_102_1049
*400 FILLER_102_1057
*401 FILLER_102_109
*402 FILLER_102_121
*403 FILLER_102_133
*404 FILLER_102_139
*405 FILLER_102_141
*406 FILLER_102_15
*407 FILLER_102_153
*408 FILLER_102_165
*409 FILLER_102_177
*410 FILLER_102_189
*411 FILLER_102_195
*412 FILLER_102_197
*413 FILLER_102_209
*414 FILLER_102_221
*415 FILLER_102_233
*416 FILLER_102_245
*417 FILLER_102_251
*418 FILLER_102_253
*419 FILLER_102_265
*420 FILLER_102_27
*421 FILLER_102_277
*422 FILLER_102_289
*423 FILLER_102_29
*424 FILLER_102_3
*425 FILLER_102_301
*426 FILLER_102_307
*427 FILLER_102_309
*428 FILLER_102_321
*429 FILLER_102_333
*430 FILLER_102_345
*431 FILLER_102_357
*432 FILLER_102_363
*433 FILLER_102_365
*434 FILLER_102_377
*435 FILLER_102_389
*436 FILLER_102_401
*437 FILLER_102_41
*438 FILLER_102_413
*439 FILLER_102_419
*440 FILLER_102_421
*441 FILLER_102_433
*442 FILLER_102_445
*443 FILLER_102_457
*444 FILLER_102_469
*445 FILLER_102_475
*446 FILLER_102_477
*447 FILLER_102_489
*448 FILLER_102_501
*449 FILLER_102_513
*450 FILLER_102_525
*451 FILLER_102_53
*452 FILLER_102_531
*453 FILLER_102_533
*454 FILLER_102_545
*455 FILLER_102_557
*456 FILLER_102_569
*457 FILLER_102_581
*458 FILLER_102_587
*459 FILLER_102_589
*460 FILLER_102_601
*461 FILLER_102_613
*462 FILLER_102_625
*463 FILLER_102_637
*464 FILLER_102_643
*465 FILLER_102_645
*466 FILLER_102_65
*467 FILLER_102_657
*468 FILLER_102_669
*469 FILLER_102_681
*470 FILLER_102_693
*471 FILLER_102_699
*472 FILLER_102_701
*473 FILLER_102_713
*474 FILLER_102_725
*475 FILLER_102_737
*476 FILLER_102_749
*477 FILLER_102_755
*478 FILLER_102_757
*479 FILLER_102_769
*480 FILLER_102_77
*481 FILLER_102_781
*482 FILLER_102_793
*483 FILLER_102_805
*484 FILLER_102_811
*485 FILLER_102_813
*486 FILLER_102_825
*487 FILLER_102_83
*488 FILLER_102_837
*489 FILLER_102_849
*490 FILLER_102_85
*491 FILLER_102_861
*492 FILLER_102_867
*493 FILLER_102_869
*494 FILLER_102_881
*495 FILLER_102_893
*496 FILLER_102_905
*497 FILLER_102_917
*498 FILLER_102_923
*499 FILLER_102_925
*500 FILLER_102_937
*501 FILLER_102_949
*502 FILLER_102_961
*503 FILLER_102_97
*504 FILLER_102_973
*505 FILLER_102_979
*506 FILLER_102_981
*507 FILLER_102_993
*508 FILLER_103_1001
*509 FILLER_103_1007
*510 FILLER_103_1009
*511 FILLER_103_1021
*512 FILLER_103_1033
*513 FILLER_103_1045
*514 FILLER_103_105
*515 FILLER_103_1057
*516 FILLER_103_111
*517 FILLER_103_113
*518 FILLER_103_125
*519 FILLER_103_137
*520 FILLER_103_149
*521 FILLER_103_15
*522 FILLER_103_161
*523 FILLER_103_167
*524 FILLER_103_169
*525 FILLER_103_181
*526 FILLER_103_193
*527 FILLER_103_205
*528 FILLER_103_217
*529 FILLER_103_223
*530 FILLER_103_225
*531 FILLER_103_237
*532 FILLER_103_249
*533 FILLER_103_261
*534 FILLER_103_27
*535 FILLER_103_273
*536 FILLER_103_279
*537 FILLER_103_281
*538 FILLER_103_293
*539 FILLER_103_3
*540 FILLER_103_305
*541 FILLER_103_317
*542 FILLER_103_329
*543 FILLER_103_335
*544 FILLER_103_337
*545 FILLER_103_349
*546 FILLER_103_361
*547 FILLER_103_373
*548 FILLER_103_385
*549 FILLER_103_39
*550 FILLER_103_391
*551 FILLER_103_393
*552 FILLER_103_405
*553 FILLER_103_417
*554 FILLER_103_429
*555 FILLER_103_441
*556 FILLER_103_447
*557 FILLER_103_449
*558 FILLER_103_461
*559 FILLER_103_473
*560 FILLER_103_485
*561 FILLER_103_497
*562 FILLER_103_503
*563 FILLER_103_505
*564 FILLER_103_51
*565 FILLER_103_517
*566 FILLER_103_529
*567 FILLER_103_541
*568 FILLER_103_55
*569 FILLER_103_553
*570 FILLER_103_559
*571 FILLER_103_561
*572 FILLER_103_57
*573 FILLER_103_573
*574 FILLER_103_585
*575 FILLER_103_597
*576 FILLER_103_609
*577 FILLER_103_615
*578 FILLER_103_617
*579 FILLER_103_629
*580 FILLER_103_641
*581 FILLER_103_653
*582 FILLER_103_665
*583 FILLER_103_671
*584 FILLER_103_673
*585 FILLER_103_685
*586 FILLER_103_69
*587 FILLER_103_697
*588 FILLER_103_709
*589 FILLER_103_721
*590 FILLER_103_727
*591 FILLER_103_729
*592 FILLER_103_741
*593 FILLER_103_753
*594 FILLER_103_765
*595 FILLER_103_777
*596 FILLER_103_783
*597 FILLER_103_785
*598 FILLER_103_797
*599 FILLER_103_809
*600 FILLER_103_81
*601 FILLER_103_821
*602 FILLER_103_833
*603 FILLER_103_839
*604 FILLER_103_841
*605 FILLER_103_853
*606 FILLER_103_865
*607 FILLER_103_877
*608 FILLER_103_889
*609 FILLER_103_895
*610 FILLER_103_897
*611 FILLER_103_909
*612 FILLER_103_921
*613 FILLER_103_93
*614 FILLER_103_933
*615 FILLER_103_945
*616 FILLER_103_951
*617 FILLER_103_953
*618 FILLER_103_965
*619 FILLER_103_977
*620 FILLER_103_989
*621 FILLER_104_1005
*622 FILLER_104_1017
*623 FILLER_104_1029
*624 FILLER_104_1035
*625 FILLER_104_1037
*626 FILLER_104_1049
*627 FILLER_104_1057
*628 FILLER_104_109
*629 FILLER_104_121
*630 FILLER_104_133
*631 FILLER_104_139
*632 FILLER_104_141
*633 FILLER_104_15
*634 FILLER_104_153
*635 FILLER_104_165
*636 FILLER_104_177
*637 FILLER_104_189
*638 FILLER_104_195
*639 FILLER_104_197
*640 FILLER_104_209
*641 FILLER_104_221
*642 FILLER_104_233
*643 FILLER_104_245
*644 FILLER_104_251
*645 FILLER_104_253
*646 FILLER_104_265
*647 FILLER_104_27
*648 FILLER_104_277
*649 FILLER_104_289
*650 FILLER_104_29
*651 FILLER_104_3
*652 FILLER_104_301
*653 FILLER_104_307
*654 FILLER_104_309
*655 FILLER_104_321
*656 FILLER_104_333
*657 FILLER_104_345
*658 FILLER_104_357
*659 FILLER_104_363
*660 FILLER_104_365
*661 FILLER_104_377
*662 FILLER_104_389
*663 FILLER_104_401
*664 FILLER_104_41
*665 FILLER_104_413
*666 FILLER_104_419
*667 FILLER_104_421
*668 FILLER_104_433
*669 FILLER_104_445
*670 FILLER_104_457
*671 FILLER_104_469
*672 FILLER_104_475
*673 FILLER_104_477
*674 FILLER_104_489
*675 FILLER_104_501
*676 FILLER_104_513
*677 FILLER_104_525
*678 FILLER_104_53
*679 FILLER_104_531
*680 FILLER_104_533
*681 FILLER_104_545
*682 FILLER_104_557
*683 FILLER_104_569
*684 FILLER_104_581
*685 FILLER_104_587
*686 FILLER_104_589
*687 FILLER_104_601
*688 FILLER_104_613
*689 FILLER_104_625
*690 FILLER_104_637
*691 FILLER_104_643
*692 FILLER_104_645
*693 FILLER_104_65
*694 FILLER_104_657
*695 FILLER_104_669
*696 FILLER_104_681
*697 FILLER_104_693
*698 FILLER_104_699
*699 FILLER_104_701
*700 FILLER_104_713
*701 FILLER_104_725
*702 FILLER_104_737
*703 FILLER_104_749
*704 FILLER_104_755
*705 FILLER_104_757
*706 FILLER_104_769
*707 FILLER_104_77
*708 FILLER_104_781
*709 FILLER_104_793
*710 FILLER_104_805
*711 FILLER_104_811
*712 FILLER_104_813
*713 FILLER_104_825
*714 FILLER_104_83
*715 FILLER_104_837
*716 FILLER_104_849
*717 FILLER_104_85
*718 FILLER_104_861
*719 FILLER_104_867
*720 FILLER_104_869
*721 FILLER_104_881
*722 FILLER_104_893
*723 FILLER_104_905
*724 FILLER_104_917
*725 FILLER_104_923
*726 FILLER_104_925
*727 FILLER_104_937
*728 FILLER_104_949
*729 FILLER_104_961
*730 FILLER_104_97
*731 FILLER_104_973
*732 FILLER_104_979
*733 FILLER_104_981
*734 FILLER_104_993
*735 FILLER_105_1001
*736 FILLER_105_1007
*737 FILLER_105_1009
*738 FILLER_105_1021
*739 FILLER_105_1033
*740 FILLER_105_1045
*741 FILLER_105_105
*742 FILLER_105_1057
*743 FILLER_105_111
*744 FILLER_105_113
*745 FILLER_105_125
*746 FILLER_105_137
*747 FILLER_105_149
*748 FILLER_105_15
*749 FILLER_105_161
*750 FILLER_105_167
*751 FILLER_105_169
*752 FILLER_105_181
*753 FILLER_105_193
*754 FILLER_105_205
*755 FILLER_105_217
*756 FILLER_105_223
*757 FILLER_105_225
*758 FILLER_105_237
*759 FILLER_105_249
*760 FILLER_105_261
*761 FILLER_105_27
*762 FILLER_105_273
*763 FILLER_105_279
*764 FILLER_105_281
*765 FILLER_105_293
*766 FILLER_105_3
*767 FILLER_105_305
*768 FILLER_105_317
*769 FILLER_105_329
*770 FILLER_105_335
*771 FILLER_105_337
*772 FILLER_105_349
*773 FILLER_105_361
*774 FILLER_105_373
*775 FILLER_105_385
*776 FILLER_105_39
*777 FILLER_105_391
*778 FILLER_105_393
*779 FILLER_105_405
*780 FILLER_105_417
*781 FILLER_105_429
*782 FILLER_105_441
*783 FILLER_105_447
*784 FILLER_105_449
*785 FILLER_105_461
*786 FILLER_105_473
*787 FILLER_105_485
*788 FILLER_105_497
*789 FILLER_105_503
*790 FILLER_105_505
*791 FILLER_105_51
*792 FILLER_105_517
*793 FILLER_105_529
*794 FILLER_105_541
*795 FILLER_105_55
*796 FILLER_105_553
*797 FILLER_105_559
*798 FILLER_105_561
*799 FILLER_105_57
*800 FILLER_105_573
*801 FILLER_105_585
*802 FILLER_105_597
*803 FILLER_105_609
*804 FILLER_105_615
*805 FILLER_105_617
*806 FILLER_105_629
*807 FILLER_105_641
*808 FILLER_105_653
*809 FILLER_105_665
*810 FILLER_105_671
*811 FILLER_105_673
*812 FILLER_105_685
*813 FILLER_105_69
*814 FILLER_105_697
*815 FILLER_105_709
*816 FILLER_105_721
*817 FILLER_105_727
*818 FILLER_105_729
*819 FILLER_105_741
*820 FILLER_105_753
*821 FILLER_105_765
*822 FILLER_105_777
*823 FILLER_105_783
*824 FILLER_105_785
*825 FILLER_105_797
*826 FILLER_105_809
*827 FILLER_105_81
*828 FILLER_105_821
*829 FILLER_105_833
*830 FILLER_105_839
*831 FILLER_105_841
*832 FILLER_105_853
*833 FILLER_105_865
*834 FILLER_105_877
*835 FILLER_105_889
*836 FILLER_105_895
*837 FILLER_105_897
*838 FILLER_105_909
*839 FILLER_105_921
*840 FILLER_105_93
*841 FILLER_105_933
*842 FILLER_105_945
*843 FILLER_105_951
*844 FILLER_105_953
*845 FILLER_105_965
*846 FILLER_105_977
*847 FILLER_105_989
*848 FILLER_106_1005
*849 FILLER_106_1017
*850 FILLER_106_1029
*851 FILLER_106_1035
*852 FILLER_106_1037
*853 FILLER_106_1049
*854 FILLER_106_1057
*855 FILLER_106_109
*856 FILLER_106_121
*857 FILLER_106_133
*858 FILLER_106_139
*859 FILLER_106_141
*860 FILLER_106_15
*861 FILLER_106_153
*862 FILLER_106_165
*863 FILLER_106_177
*864 FILLER_106_189
*865 FILLER_106_195
*866 FILLER_106_197
*867 FILLER_106_209
*868 FILLER_106_221
*869 FILLER_106_233
*870 FILLER_106_245
*871 FILLER_106_251
*872 FILLER_106_253
*873 FILLER_106_265
*874 FILLER_106_27
*875 FILLER_106_277
*876 FILLER_106_289
*877 FILLER_106_29
*878 FILLER_106_3
*879 FILLER_106_301
*880 FILLER_106_307
*881 FILLER_106_309
*882 FILLER_106_321
*883 FILLER_106_333
*884 FILLER_106_345
*885 FILLER_106_357
*886 FILLER_106_363
*887 FILLER_106_365
*888 FILLER_106_377
*889 FILLER_106_389
*890 FILLER_106_401
*891 FILLER_106_41
*892 FILLER_106_413
*893 FILLER_106_419
*894 FILLER_106_421
*895 FILLER_106_433
*896 FILLER_106_445
*897 FILLER_106_457
*898 FILLER_106_469
*899 FILLER_106_475
*900 FILLER_106_477
*901 FILLER_106_489
*902 FILLER_106_501
*903 FILLER_106_513
*904 FILLER_106_525
*905 FILLER_106_53
*906 FILLER_106_531
*907 FILLER_106_533
*908 FILLER_106_545
*909 FILLER_106_557
*910 FILLER_106_569
*911 FILLER_106_581
*912 FILLER_106_587
*913 FILLER_106_589
*914 FILLER_106_601
*915 FILLER_106_613
*916 FILLER_106_625
*917 FILLER_106_637
*918 FILLER_106_643
*919 FILLER_106_645
*920 FILLER_106_65
*921 FILLER_106_657
*922 FILLER_106_669
*923 FILLER_106_681
*924 FILLER_106_693
*925 FILLER_106_699
*926 FILLER_106_701
*927 FILLER_106_713
*928 FILLER_106_725
*929 FILLER_106_737
*930 FILLER_106_749
*931 FILLER_106_755
*932 FILLER_106_757
*933 FILLER_106_769
*934 FILLER_106_77
*935 FILLER_106_781
*936 FILLER_106_793
*937 FILLER_106_805
*938 FILLER_106_811
*939 FILLER_106_813
*940 FILLER_106_825
*941 FILLER_106_83
*942 FILLER_106_837
*943 FILLER_106_849
*944 FILLER_106_85
*945 FILLER_106_861
*946 FILLER_106_867
*947 FILLER_106_869
*948 FILLER_106_881
*949 FILLER_106_893
*950 FILLER_106_905
*951 FILLER_106_917
*952 FILLER_106_923
*953 FILLER_106_925
*954 FILLER_106_937
*955 FILLER_106_949
*956 FILLER_106_961
*957 FILLER_106_97
*958 FILLER_106_973
*959 FILLER_106_979
*960 FILLER_106_981
*961 FILLER_106_993
*962 FILLER_107_1001
*963 FILLER_107_1007
*964 FILLER_107_1009
*965 FILLER_107_1021
*966 FILLER_107_1033
*967 FILLER_107_1045
*968 FILLER_107_105
*969 FILLER_107_1057
*970 FILLER_107_111
*971 FILLER_107_113
*972 FILLER_107_125
*973 FILLER_107_137
*974 FILLER_107_149
*975 FILLER_107_15
*976 FILLER_107_161
*977 FILLER_107_167
*978 FILLER_107_169
*979 FILLER_107_181
*980 FILLER_107_193
*981 FILLER_107_205
*982 FILLER_107_217
*983 FILLER_107_223
*984 FILLER_107_225
*985 FILLER_107_237
*986 FILLER_107_249
*987 FILLER_107_261
*988 FILLER_107_27
*989 FILLER_107_273
*990 FILLER_107_279
*991 FILLER_107_281
*992 FILLER_107_293
*993 FILLER_107_3
*994 FILLER_107_305
*995 FILLER_107_317
*996 FILLER_107_329
*997 FILLER_107_335
*998 FILLER_107_337
*999 FILLER_107_349
*1000 FILLER_107_361
*1001 FILLER_107_373
*1002 FILLER_107_385
*1003 FILLER_107_39
*1004 FILLER_107_391
*1005 FILLER_107_393
*1006 FILLER_107_405
*1007 FILLER_107_417
*1008 FILLER_107_429
*1009 FILLER_107_441
*1010 FILLER_107_447
*1011 FILLER_107_449
*1012 FILLER_107_461
*1013 FILLER_107_473
*1014 FILLER_107_485
*1015 FILLER_107_497
*1016 FILLER_107_503
*1017 FILLER_107_505
*1018 FILLER_107_51
*1019 FILLER_107_517
*1020 FILLER_107_529
*1021 FILLER_107_541
*1022 FILLER_107_55
*1023 FILLER_107_553
*1024 FILLER_107_559
*1025 FILLER_107_561
*1026 FILLER_107_57
*1027 FILLER_107_573
*1028 FILLER_107_585
*1029 FILLER_107_597
*1030 FILLER_107_609
*1031 FILLER_107_615
*1032 FILLER_107_617
*1033 FILLER_107_629
*1034 FILLER_107_641
*1035 FILLER_107_653
*1036 FILLER_107_665
*1037 FILLER_107_671
*1038 FILLER_107_673
*1039 FILLER_107_685
*1040 FILLER_107_69
*1041 FILLER_107_697
*1042 FILLER_107_709
*1043 FILLER_107_721
*1044 FILLER_107_727
*1045 FILLER_107_729
*1046 FILLER_107_741
*1047 FILLER_107_753
*1048 FILLER_107_765
*1049 FILLER_107_777
*1050 FILLER_107_783
*1051 FILLER_107_785
*1052 FILLER_107_797
*1053 FILLER_107_809
*1054 FILLER_107_81
*1055 FILLER_107_821
*1056 FILLER_107_833
*1057 FILLER_107_839
*1058 FILLER_107_841
*1059 FILLER_107_853
*1060 FILLER_107_865
*1061 FILLER_107_877
*1062 FILLER_107_889
*1063 FILLER_107_895
*1064 FILLER_107_897
*1065 FILLER_107_909
*1066 FILLER_107_921
*1067 FILLER_107_93
*1068 FILLER_107_933
*1069 FILLER_107_945
*1070 FILLER_107_951
*1071 FILLER_107_953
*1072 FILLER_107_965
*1073 FILLER_107_977
*1074 FILLER_107_989
*1075 FILLER_108_1005
*1076 FILLER_108_1017
*1077 FILLER_108_1029
*1078 FILLER_108_1035
*1079 FILLER_108_1037
*1080 FILLER_108_1049
*1081 FILLER_108_1057
*1082 FILLER_108_109
*1083 FILLER_108_121
*1084 FILLER_108_133
*1085 FILLER_108_139
*1086 FILLER_108_141
*1087 FILLER_108_15
*1088 FILLER_108_153
*1089 FILLER_108_165
*1090 FILLER_108_177
*1091 FILLER_108_189
*1092 FILLER_108_195
*1093 FILLER_108_197
*1094 FILLER_108_209
*1095 FILLER_108_221
*1096 FILLER_108_233
*1097 FILLER_108_245
*1098 FILLER_108_251
*1099 FILLER_108_253
*1100 FILLER_108_265
*1101 FILLER_108_27
*1102 FILLER_108_277
*1103 FILLER_108_289
*1104 FILLER_108_29
*1105 FILLER_108_3
*1106 FILLER_108_301
*1107 FILLER_108_307
*1108 FILLER_108_309
*1109 FILLER_108_321
*1110 FILLER_108_333
*1111 FILLER_108_345
*1112 FILLER_108_357
*1113 FILLER_108_363
*1114 FILLER_108_365
*1115 FILLER_108_377
*1116 FILLER_108_389
*1117 FILLER_108_401
*1118 FILLER_108_41
*1119 FILLER_108_413
*1120 FILLER_108_419
*1121 FILLER_108_421
*1122 FILLER_108_433
*1123 FILLER_108_445
*1124 FILLER_108_457
*1125 FILLER_108_469
*1126 FILLER_108_475
*1127 FILLER_108_477
*1128 FILLER_108_489
*1129 FILLER_108_501
*1130 FILLER_108_513
*1131 FILLER_108_525
*1132 FILLER_108_53
*1133 FILLER_108_531
*1134 FILLER_108_533
*1135 FILLER_108_545
*1136 FILLER_108_557
*1137 FILLER_108_569
*1138 FILLER_108_581
*1139 FILLER_108_587
*1140 FILLER_108_589
*1141 FILLER_108_601
*1142 FILLER_108_613
*1143 FILLER_108_625
*1144 FILLER_108_637
*1145 FILLER_108_643
*1146 FILLER_108_645
*1147 FILLER_108_65
*1148 FILLER_108_657
*1149 FILLER_108_669
*1150 FILLER_108_681
*1151 FILLER_108_693
*1152 FILLER_108_699
*1153 FILLER_108_701
*1154 FILLER_108_713
*1155 FILLER_108_725
*1156 FILLER_108_737
*1157 FILLER_108_749
*1158 FILLER_108_755
*1159 FILLER_108_757
*1160 FILLER_108_769
*1161 FILLER_108_77
*1162 FILLER_108_781
*1163 FILLER_108_793
*1164 FILLER_108_805
*1165 FILLER_108_811
*1166 FILLER_108_813
*1167 FILLER_108_825
*1168 FILLER_108_83
*1169 FILLER_108_837
*1170 FILLER_108_849
*1171 FILLER_108_85
*1172 FILLER_108_861
*1173 FILLER_108_867
*1174 FILLER_108_869
*1175 FILLER_108_881
*1176 FILLER_108_893
*1177 FILLER_108_905
*1178 FILLER_108_917
*1179 FILLER_108_923
*1180 FILLER_108_925
*1181 FILLER_108_937
*1182 FILLER_108_949
*1183 FILLER_108_961
*1184 FILLER_108_97
*1185 FILLER_108_973
*1186 FILLER_108_979
*1187 FILLER_108_981
*1188 FILLER_108_993
*1189 FILLER_109_1001
*1190 FILLER_109_1007
*1191 FILLER_109_1009
*1192 FILLER_109_1021
*1193 FILLER_109_1033
*1194 FILLER_109_1045
*1195 FILLER_109_105
*1196 FILLER_109_1057
*1197 FILLER_109_111
*1198 FILLER_109_113
*1199 FILLER_109_125
*1200 FILLER_109_137
*1201 FILLER_109_149
*1202 FILLER_109_15
*1203 FILLER_109_161
*1204 FILLER_109_167
*1205 FILLER_109_169
*1206 FILLER_109_181
*1207 FILLER_109_193
*1208 FILLER_109_205
*1209 FILLER_109_217
*1210 FILLER_109_223
*1211 FILLER_109_225
*1212 FILLER_109_237
*1213 FILLER_109_249
*1214 FILLER_109_261
*1215 FILLER_109_27
*1216 FILLER_109_273
*1217 FILLER_109_279
*1218 FILLER_109_281
*1219 FILLER_109_293
*1220 FILLER_109_3
*1221 FILLER_109_305
*1222 FILLER_109_317
*1223 FILLER_109_329
*1224 FILLER_109_335
*1225 FILLER_109_337
*1226 FILLER_109_349
*1227 FILLER_109_361
*1228 FILLER_109_373
*1229 FILLER_109_385
*1230 FILLER_109_39
*1231 FILLER_109_391
*1232 FILLER_109_393
*1233 FILLER_109_405
*1234 FILLER_109_417
*1235 FILLER_109_429
*1236 FILLER_109_441
*1237 FILLER_109_447
*1238 FILLER_109_449
*1239 FILLER_109_461
*1240 FILLER_109_473
*1241 FILLER_109_485
*1242 FILLER_109_497
*1243 FILLER_109_503
*1244 FILLER_109_505
*1245 FILLER_109_51
*1246 FILLER_109_517
*1247 FILLER_109_529
*1248 FILLER_109_541
*1249 FILLER_109_55
*1250 FILLER_109_553
*1251 FILLER_109_559
*1252 FILLER_109_561
*1253 FILLER_109_57
*1254 FILLER_109_573
*1255 FILLER_109_585
*1256 FILLER_109_597
*1257 FILLER_109_609
*1258 FILLER_109_615
*1259 FILLER_109_617
*1260 FILLER_109_629
*1261 FILLER_109_641
*1262 FILLER_109_653
*1263 FILLER_109_665
*1264 FILLER_109_671
*1265 FILLER_109_673
*1266 FILLER_109_685
*1267 FILLER_109_69
*1268 FILLER_109_697
*1269 FILLER_109_709
*1270 FILLER_109_721
*1271 FILLER_109_727
*1272 FILLER_109_729
*1273 FILLER_109_741
*1274 FILLER_109_753
*1275 FILLER_109_765
*1276 FILLER_109_777
*1277 FILLER_109_783
*1278 FILLER_109_785
*1279 FILLER_109_797
*1280 FILLER_109_809
*1281 FILLER_109_81
*1282 FILLER_109_821
*1283 FILLER_109_833
*1284 FILLER_109_839
*1285 FILLER_109_841
*1286 FILLER_109_853
*1287 FILLER_109_865
*1288 FILLER_109_877
*1289 FILLER_109_889
*1290 FILLER_109_895
*1291 FILLER_109_897
*1292 FILLER_109_909
*1293 FILLER_109_921
*1294 FILLER_109_93
*1295 FILLER_109_933
*1296 FILLER_109_945
*1297 FILLER_109_951
*1298 FILLER_109_953
*1299 FILLER_109_965
*1300 FILLER_109_977
*1301 FILLER_109_989
*1302 FILLER_10_1005
*1303 FILLER_10_1017
*1304 FILLER_10_1029
*1305 FILLER_10_1035
*1306 FILLER_10_1037
*1307 FILLER_10_1049
*1308 FILLER_10_1057
*1309 FILLER_10_109
*1310 FILLER_10_121
*1311 FILLER_10_133
*1312 FILLER_10_139
*1313 FILLER_10_141
*1314 FILLER_10_15
*1315 FILLER_10_153
*1316 FILLER_10_165
*1317 FILLER_10_177
*1318 FILLER_10_189
*1319 FILLER_10_195
*1320 FILLER_10_197
*1321 FILLER_10_209
*1322 FILLER_10_221
*1323 FILLER_10_233
*1324 FILLER_10_245
*1325 FILLER_10_251
*1326 FILLER_10_253
*1327 FILLER_10_265
*1328 FILLER_10_27
*1329 FILLER_10_277
*1330 FILLER_10_289
*1331 FILLER_10_29
*1332 FILLER_10_3
*1333 FILLER_10_301
*1334 FILLER_10_307
*1335 FILLER_10_309
*1336 FILLER_10_321
*1337 FILLER_10_333
*1338 FILLER_10_345
*1339 FILLER_10_357
*1340 FILLER_10_363
*1341 FILLER_10_365
*1342 FILLER_10_377
*1343 FILLER_10_389
*1344 FILLER_10_401
*1345 FILLER_10_41
*1346 FILLER_10_413
*1347 FILLER_10_419
*1348 FILLER_10_421
*1349 FILLER_10_433
*1350 FILLER_10_445
*1351 FILLER_10_457
*1352 FILLER_10_469
*1353 FILLER_10_475
*1354 FILLER_10_477
*1355 FILLER_10_489
*1356 FILLER_10_501
*1357 FILLER_10_513
*1358 FILLER_10_525
*1359 FILLER_10_53
*1360 FILLER_10_531
*1361 FILLER_10_533
*1362 FILLER_10_545
*1363 FILLER_10_557
*1364 FILLER_10_569
*1365 FILLER_10_581
*1366 FILLER_10_587
*1367 FILLER_10_589
*1368 FILLER_10_601
*1369 FILLER_10_613
*1370 FILLER_10_625
*1371 FILLER_10_637
*1372 FILLER_10_643
*1373 FILLER_10_645
*1374 FILLER_10_65
*1375 FILLER_10_657
*1376 FILLER_10_669
*1377 FILLER_10_681
*1378 FILLER_10_693
*1379 FILLER_10_699
*1380 FILLER_10_701
*1381 FILLER_10_713
*1382 FILLER_10_725
*1383 FILLER_10_737
*1384 FILLER_10_749
*1385 FILLER_10_755
*1386 FILLER_10_757
*1387 FILLER_10_769
*1388 FILLER_10_77
*1389 FILLER_10_781
*1390 FILLER_10_793
*1391 FILLER_10_805
*1392 FILLER_10_811
*1393 FILLER_10_813
*1394 FILLER_10_825
*1395 FILLER_10_83
*1396 FILLER_10_837
*1397 FILLER_10_849
*1398 FILLER_10_85
*1399 FILLER_10_861
*1400 FILLER_10_867
*1401 FILLER_10_869
*1402 FILLER_10_881
*1403 FILLER_10_893
*1404 FILLER_10_905
*1405 FILLER_10_917
*1406 FILLER_10_923
*1407 FILLER_10_925
*1408 FILLER_10_937
*1409 FILLER_10_949
*1410 FILLER_10_961
*1411 FILLER_10_97
*1412 FILLER_10_973
*1413 FILLER_10_979
*1414 FILLER_10_981
*1415 FILLER_10_993
*1416 FILLER_110_1005
*1417 FILLER_110_1017
*1418 FILLER_110_1029
*1419 FILLER_110_1035
*1420 FILLER_110_1037
*1421 FILLER_110_1049
*1422 FILLER_110_1057
*1423 FILLER_110_109
*1424 FILLER_110_121
*1425 FILLER_110_133
*1426 FILLER_110_139
*1427 FILLER_110_141
*1428 FILLER_110_15
*1429 FILLER_110_153
*1430 FILLER_110_165
*1431 FILLER_110_177
*1432 FILLER_110_189
*1433 FILLER_110_195
*1434 FILLER_110_197
*1435 FILLER_110_209
*1436 FILLER_110_221
*1437 FILLER_110_233
*1438 FILLER_110_245
*1439 FILLER_110_251
*1440 FILLER_110_253
*1441 FILLER_110_265
*1442 FILLER_110_27
*1443 FILLER_110_277
*1444 FILLER_110_289
*1445 FILLER_110_29
*1446 FILLER_110_3
*1447 FILLER_110_301
*1448 FILLER_110_307
*1449 FILLER_110_309
*1450 FILLER_110_321
*1451 FILLER_110_333
*1452 FILLER_110_345
*1453 FILLER_110_357
*1454 FILLER_110_363
*1455 FILLER_110_365
*1456 FILLER_110_377
*1457 FILLER_110_389
*1458 FILLER_110_401
*1459 FILLER_110_41
*1460 FILLER_110_413
*1461 FILLER_110_419
*1462 FILLER_110_421
*1463 FILLER_110_433
*1464 FILLER_110_445
*1465 FILLER_110_457
*1466 FILLER_110_469
*1467 FILLER_110_475
*1468 FILLER_110_477
*1469 FILLER_110_489
*1470 FILLER_110_501
*1471 FILLER_110_513
*1472 FILLER_110_525
*1473 FILLER_110_53
*1474 FILLER_110_531
*1475 FILLER_110_533
*1476 FILLER_110_545
*1477 FILLER_110_557
*1478 FILLER_110_569
*1479 FILLER_110_581
*1480 FILLER_110_587
*1481 FILLER_110_589
*1482 FILLER_110_601
*1483 FILLER_110_613
*1484 FILLER_110_625
*1485 FILLER_110_637
*1486 FILLER_110_643
*1487 FILLER_110_645
*1488 FILLER_110_65
*1489 FILLER_110_657
*1490 FILLER_110_669
*1491 FILLER_110_681
*1492 FILLER_110_693
*1493 FILLER_110_699
*1494 FILLER_110_701
*1495 FILLER_110_713
*1496 FILLER_110_725
*1497 FILLER_110_737
*1498 FILLER_110_749
*1499 FILLER_110_755
*1500 FILLER_110_757