*SPEF "ieee 1481-1999"
*DESIGN "core"
*DATE "11:11:11 Fri 11 11, 1111"
*VENDOR "OpenRCX"
*PROGRAM "Parallel Extraction"
*VERSION "1.0"
*DESIGN_FLOW "NAME_SCOPE LOCAL" "PIN_CAP NONE"
*DIVIDER /
*DELIMITER :
*BUS_DELIMITER []
*T_UNIT 1 NS
*C_UNIT 1 PF
*R_UNIT 1 OHM
*L_UNIT 1 HENRY

*NAME_MAP
*1 clk
*2 enable
*3 out1[0]
*4 out1[1]
*5 out1[2]
*6 out1[3]
*7 out2
*8 reset
*11 out_c2\[0\]
*12 out_c2\[1\]
*13 out_c2\[2\]
*14 c1
*15 c2

*PORTS
clk I
enable I
out1[0] O
out1[1] O
out1[2] O
out1[3] O
out2 O
reset I

*D_NET *1 0.050975
*CONN
*P clk I
*I *14:clk I *D counter
*I *15:clk I *D counter
*CAP
1 clk 0.000944593
2 *14:clk 0.0090474
3 *15:clk 0.0095415
4 *1:16 0.00463276
5 *1:15 0.00413866
6 *1:13 0.0108627
7 *1:12 0.0118073
*RES
1 clk *1:12 29.8214 
2 *1:12 *1:13 246.625 
3 *1:13 *1:15 4.5 
4 *1:15 *1:16 86.375 
5 *1:16 *15:clk 12.7387 
6 *15:clk *14:clk 13.6479 
*END

*D_NET *2 0.0265649
*CONN
*P enable I
*I *15:enable I *D counter
*I *14:enable I *D counter
*CAP
1 enable 0.00052953
2 *15:enable 0.000201744
3 *14:enable 0.000514783
4 *2:28 0.00229977
5 *2:27 0.00209802
6 *2:25 0.00531943
7 *2:14 0.00333493
8 *2:13 0.00461896
9 *2:7 0.00764777
*RES
1 enable *2:7 16.5536 
2 *2:7 *2:13 49.5714 
3 *2:13 *2:14 58.8571 
4 *2:14 *14:enable 16.1875 
5 *2:7 *2:25 111.018 
6 *2:25 *2:27 4.5 
7 *2:27 *2:28 47.6339 
8 *2:28 *15:enable 4.58036 
*END

*D_NET *3 0.0434555
*CONN
*P out1[0] O
*I *14:out[0] O *D counter
*CAP
1 out1[0] 0.000605665
2 *14:out[0] 0.000494018
3 *3:11 0.0174375
4 *3:10 0.0168319
5 *3:8 0.00379618
6 *3:7 0.0042902
7 *3:8 *5:8 0
*RES
1 *14:out[0] *3:7 5.19913 
2 *3:7 *3:8 86.1875 
3 *3:8 *3:10 4.5 
4 *3:10 *3:11 351.286 
5 *3:11 out1[0] 10.3363 
*END

*D_NET *4 0.0242174
*CONN
*P out1[1] O
*I *14:out[1] O *D counter
*CAP
1 out1[1] 0.000613369
2 *14:out[1] 0.000399163
3 *4:13 0.00822027
4 *4:12 0.00760691
5 *4:10 0.00348924
6 *4:9 0.00388841
*RES
1 *14:out[1] *4:9 13.5625 
2 *4:9 *4:10 72.8214 
3 *4:10 *4:12 4.5 
4 *4:12 *4:13 172.705 
5 *4:13 out1[1] 5.63153 
*END

*D_NET *5 0.0256631
*CONN
*P out1[2] O
*I *14:out[2] O *D counter
*CAP
1 out1[2] 0.000530906
2 *14:out[2] 0.000633312
3 *5:11 0.00421694
4 *5:10 0.00368604
5 *5:8 0.00798129
6 *5:7 0.0086146
7 *3:8 *5:8 0
*RES
1 *14:out[2] *5:7 5.7036 
2 *5:7 *5:8 181.205 
3 *5:8 *5:10 4.5 
4 *5:10 *5:11 76.9286 
5 *5:11 out1[2] 16.5536 
*END

*D_NET *6 0.03261
*CONN
*P out1[3] O
*I *14:out[3] O *D counter
*CAP
1 out1[3] 0.000237925
2 *14:out[3] 0.000439276
3 *6:13 0.00987718
4 *6:12 0.00963925
5 *6:10 0.00598853
6 *6:9 0.0064278
*RES
1 *14:out[3] *6:9 14.4732 
2 *6:9 *6:10 124.982 
3 *6:10 *6:12 4.5 
4 *6:12 *6:13 218.848 
5 *6:13 out1[3] 5.40179 
*END

*D_NET *7 0.0281684
*CONN
*P out2 O
*I *15:out[3] O *D counter
*CAP
1 out2 9.32036e-05
2 *15:out[3] 0.000370455
3 *7:11 0.0097325
4 *7:10 0.00963929
5 *7:8 0.00398123
6 *7:7 0.00435168
*RES
1 *15:out[3] *7:7 12.9107 
2 *7:7 *7:8 83.0893 
3 *7:8 *7:10 4.5 
4 *7:10 *7:11 218.848 
5 *7:11 out2 2.11607 
*END

*D_NET *8 0.036609
*CONN
*P reset I
*I *14:reset I *D counter
*I *15:reset I *D counter
*CAP
1 reset 0.00011149
2 *14:reset 0.0090474
3 *15:reset 0.0095415
4 *8:20 0.00433757
5 *8:19 0.00553962
6 *8:13 0.00480805
7 *8:11 0.00322339
*RES
1 reset *8:11 3.29464 
2 *8:11 *8:13 70.7143 
3 *8:13 *8:19 43.0089 
4 *8:19 *8:20 80.2143 
5 *8:20 *15:reset 12.7387 
6 *15:reset *14:reset 13.6479 
*END
