*SPEF "ieee 1481-1999"
*DESIGN "counter"
*DATE "11:11:11 Fri 11 11, 1111"
*VENDOR "OpenRCX"
*PROGRAM "Parallel Extraction"
*VERSION "1.0"
*DESIGN_FLOW "NAME_SCOPE LOCAL" "PIN_CAP NONE"
*DIVIDER /
*DELIMITER :
*BUS_DELIMITER []
*T_UNIT 1 NS
*C_UNIT 1 PF
*R_UNIT 1 OHM
*L_UNIT 1 HENRY

*NAME_MAP
*1 clk
*2 enable
*3 out[0]
*4 out[1]
*5 out[2]
*6 out[3]
*7 reset
*10 _00_
*11 _01_
*12 _02_
*13 _03_
*14 _04_
*15 _05_
*16 _06_
*17 _07_
*18 _08_
*19 _09_
*20 clknet_0_clk
*21 clknet_1_0__leaf_clk
*22 clknet_1_1__leaf_clk
*23 net1
*24 net2
*25 net3
*26 net4
*27 net5
*28 net6
*29 net7
*30 FILLER_0_109
*31 FILLER_0_113
*32 FILLER_0_125
*33 FILLER_0_137
*34 FILLER_0_141
*35 FILLER_0_147
*36 FILLER_0_159
*37 FILLER_0_19
*38 FILLER_0_27
*39 FILLER_0_29
*40 FILLER_0_41
*41 FILLER_0_53
*42 FILLER_0_57
*43 FILLER_0_69
*44 FILLER_0_7
*45 FILLER_0_81
*46 FILLER_0_85
*47 FILLER_0_97
*48 FILLER_10_121
*49 FILLER_10_133
*50 FILLER_10_139
*51 FILLER_10_141
*52 FILLER_10_15
*53 FILLER_10_153
*54 FILLER_10_27
*55 FILLER_10_29
*56 FILLER_10_3
*57 FILLER_10_41
*58 FILLER_10_53
*59 FILLER_10_65
*60 FILLER_10_77
*61 FILLER_10_83
*62 FILLER_10_85
*63 FILLER_10_97
*64 FILLER_11_105
*65 FILLER_11_111
*66 FILLER_11_113
*67 FILLER_11_125
*68 FILLER_11_137
*69 FILLER_11_149
*70 FILLER_11_15
*71 FILLER_11_27
*72 FILLER_11_3
*73 FILLER_11_39
*74 FILLER_11_51
*75 FILLER_11_55
*76 FILLER_11_57
*77 FILLER_11_69
*78 FILLER_11_81
*79 FILLER_11_93
*80 FILLER_12_109
*81 FILLER_12_121
*82 FILLER_12_133
*83 FILLER_12_139
*84 FILLER_12_141
*85 FILLER_12_15
*86 FILLER_12_153
*87 FILLER_12_27
*88 FILLER_12_29
*89 FILLER_12_3
*90 FILLER_12_41
*91 FILLER_12_47
*92 FILLER_12_59
*93 FILLER_12_71
*94 FILLER_12_83
*95 FILLER_12_85
*96 FILLER_12_97
*97 FILLER_13_105
*98 FILLER_13_111
*99 FILLER_13_113
*100 FILLER_13_125
*101 FILLER_13_137
*102 FILLER_13_149
*103 FILLER_13_15
*104 FILLER_13_27
*105 FILLER_13_3
*106 FILLER_13_34
*107 FILLER_13_46
*108 FILLER_13_54
*109 FILLER_13_57
*110 FILLER_13_69
*111 FILLER_13_81
*112 FILLER_13_93
*113 FILLER_14_107
*114 FILLER_14_119
*115 FILLER_14_131
*116 FILLER_14_139
*117 FILLER_14_141
*118 FILLER_14_15
*119 FILLER_14_153
*120 FILLER_14_27
*121 FILLER_14_29
*122 FILLER_14_3
*123 FILLER_14_41
*124 FILLER_14_53
*125 FILLER_14_65
*126 FILLER_14_77
*127 FILLER_14_83
*128 FILLER_14_85
*129 FILLER_14_91
*130 FILLER_14_95
*131 FILLER_15_105
*132 FILLER_15_111
*133 FILLER_15_113
*134 FILLER_15_125
*135 FILLER_15_137
*136 FILLER_15_149
*137 FILLER_15_15
*138 FILLER_15_27
*139 FILLER_15_3
*140 FILLER_15_39
*141 FILLER_15_51
*142 FILLER_15_55
*143 FILLER_15_57
*144 FILLER_15_69
*145 FILLER_15_81
*146 FILLER_15_93
*147 FILLER_16_101
*148 FILLER_16_122
*149 FILLER_16_134
*150 FILLER_16_141
*151 FILLER_16_15
*152 FILLER_16_153
*153 FILLER_16_27
*154 FILLER_16_29
*155 FILLER_16_3
*156 FILLER_16_41
*157 FILLER_16_53
*158 FILLER_16_65
*159 FILLER_16_77
*160 FILLER_16_83
*161 FILLER_16_85
*162 FILLER_16_97
*163 FILLER_17_105
*164 FILLER_17_111
*165 FILLER_17_117
*166 FILLER_17_129
*167 FILLER_17_141
*168 FILLER_17_15
*169 FILLER_17_157
*170 FILLER_17_27
*171 FILLER_17_3
*172 FILLER_17_39
*173 FILLER_17_51
*174 FILLER_17_55
*175 FILLER_17_57
*176 FILLER_17_69
*177 FILLER_17_81
*178 FILLER_17_93
*179 FILLER_18_102
*180 FILLER_18_114
*181 FILLER_18_126
*182 FILLER_18_138
*183 FILLER_18_141
*184 FILLER_18_15
*185 FILLER_18_153
*186 FILLER_18_27
*187 FILLER_18_29
*188 FILLER_18_3
*189 FILLER_18_41
*190 FILLER_18_53
*191 FILLER_18_65
*192 FILLER_18_77
*193 FILLER_18_83
*194 FILLER_19_105
*195 FILLER_19_111
*196 FILLER_19_113
*197 FILLER_19_125
*198 FILLER_19_137
*199 FILLER_19_149
*200 FILLER_19_15
*201 FILLER_19_27
*202 FILLER_19_3
*203 FILLER_19_39
*204 FILLER_19_51
*205 FILLER_19_55
*206 FILLER_19_57
*207 FILLER_19_69
*208 FILLER_19_93
*209 FILLER_1_105
*210 FILLER_1_111
*211 FILLER_1_113
*212 FILLER_1_125
*213 FILLER_1_137
*214 FILLER_1_149
*215 FILLER_1_15
*216 FILLER_1_27
*217 FILLER_1_3
*218 FILLER_1_39
*219 FILLER_1_51
*220 FILLER_1_55
*221 FILLER_1_57
*222 FILLER_1_69
*223 FILLER_1_81
*224 FILLER_1_93
*225 FILLER_20_109
*226 FILLER_20_121
*227 FILLER_20_133
*228 FILLER_20_139
*229 FILLER_20_141
*230 FILLER_20_15
*231 FILLER_20_153
*232 FILLER_20_27
*233 FILLER_20_29
*234 FILLER_20_3
*235 FILLER_20_41
*236 FILLER_20_53
*237 FILLER_20_65
*238 FILLER_20_77
*239 FILLER_20_83
*240 FILLER_20_85
*241 FILLER_20_97
*242 FILLER_21_105
*243 FILLER_21_111
*244 FILLER_21_113
*245 FILLER_21_125
*246 FILLER_21_137
*247 FILLER_21_149
*248 FILLER_21_15
*249 FILLER_21_27
*250 FILLER_21_3
*251 FILLER_21_39
*252 FILLER_21_51
*253 FILLER_21_55
*254 FILLER_21_57
*255 FILLER_21_69
*256 FILLER_21_81
*257 FILLER_21_93
*258 FILLER_22_109
*259 FILLER_22_121
*260 FILLER_22_133
*261 FILLER_22_139
*262 FILLER_22_141
*263 FILLER_22_15
*264 FILLER_22_153
*265 FILLER_22_27
*266 FILLER_22_29
*267 FILLER_22_3
*268 FILLER_22_41
*269 FILLER_22_53
*270 FILLER_22_65
*271 FILLER_22_77
*272 FILLER_22_83
*273 FILLER_22_85
*274 FILLER_22_97
*275 FILLER_23_105
*276 FILLER_23_111
*277 FILLER_23_113
*278 FILLER_23_125
*279 FILLER_23_137
*280 FILLER_23_149
*281 FILLER_23_15
*282 FILLER_23_27
*283 FILLER_23_3
*284 FILLER_23_39
*285 FILLER_23_51
*286 FILLER_23_55
*287 FILLER_23_57
*288 FILLER_23_69
*289 FILLER_23_81
*290 FILLER_23_93
*291 FILLER_24_109
*292 FILLER_24_121
*293 FILLER_24_133
*294 FILLER_24_139
*295 FILLER_24_141
*296 FILLER_24_153
*297 FILLER_24_19
*298 FILLER_24_27
*299 FILLER_24_29
*300 FILLER_24_41
*301 FILLER_24_53
*302 FILLER_24_65
*303 FILLER_24_7
*304 FILLER_24_77
*305 FILLER_24_83
*306 FILLER_24_85
*307 FILLER_24_97
*308 FILLER_25_108
*309 FILLER_25_113
*310 FILLER_25_125
*311 FILLER_25_137
*312 FILLER_25_149
*313 FILLER_25_15
*314 FILLER_25_27
*315 FILLER_25_3
*316 FILLER_25_39
*317 FILLER_25_51
*318 FILLER_25_55
*319 FILLER_25_57
*320 FILLER_25_69
*321 FILLER_25_88
*322 FILLER_25_96
*323 FILLER_26_109
*324 FILLER_26_121
*325 FILLER_26_133
*326 FILLER_26_139
*327 FILLER_26_141
*328 FILLER_26_15
*329 FILLER_26_153
*330 FILLER_26_27
*331 FILLER_26_29
*332 FILLER_26_3
*333 FILLER_26_41
*334 FILLER_26_53
*335 FILLER_26_65
*336 FILLER_26_77
*337 FILLER_26_83
*338 FILLER_26_85
*339 FILLER_26_97
*340 FILLER_27_105
*341 FILLER_27_111
*342 FILLER_27_113
*343 FILLER_27_125
*344 FILLER_27_137
*345 FILLER_27_149
*346 FILLER_27_15
*347 FILLER_27_27
*348 FILLER_27_3
*349 FILLER_27_39
*350 FILLER_27_51
*351 FILLER_27_55
*352 FILLER_27_57
*353 FILLER_27_69
*354 FILLER_27_81
*355 FILLER_27_93
*356 FILLER_28_109
*357 FILLER_28_121
*358 FILLER_28_133
*359 FILLER_28_139
*360 FILLER_28_141
*361 FILLER_28_15
*362 FILLER_28_153
*363 FILLER_28_27
*364 FILLER_28_29
*365 FILLER_28_3
*366 FILLER_28_41
*367 FILLER_28_53
*368 FILLER_28_65
*369 FILLER_28_77
*370 FILLER_28_83
*371 FILLER_28_85
*372 FILLER_28_97
*373 FILLER_29_105
*374 FILLER_29_111
*375 FILLER_29_113
*376 FILLER_29_125
*377 FILLER_29_137
*378 FILLER_29_149
*379 FILLER_29_15
*380 FILLER_29_27
*381 FILLER_29_3
*382 FILLER_29_39
*383 FILLER_29_51
*384 FILLER_29_55
*385 FILLER_29_57
*386 FILLER_29_69
*387 FILLER_29_81
*388 FILLER_29_93
*389 FILLER_2_109
*390 FILLER_2_121
*391 FILLER_2_133
*392 FILLER_2_139
*393 FILLER_2_141
*394 FILLER_2_15
*395 FILLER_2_153
*396 FILLER_2_27
*397 FILLER_2_29
*398 FILLER_2_3
*399 FILLER_2_41
*400 FILLER_2_53
*401 FILLER_2_65
*402 FILLER_2_77
*403 FILLER_2_83
*404 FILLER_2_85
*405 FILLER_2_97
*406 FILLER_30_119
*407 FILLER_30_131
*408 FILLER_30_139
*409 FILLER_30_141
*410 FILLER_30_15
*411 FILLER_30_153
*412 FILLER_30_27
*413 FILLER_30_29
*414 FILLER_30_3
*415 FILLER_30_41
*416 FILLER_30_53
*417 FILLER_30_65
*418 FILLER_30_77
*419 FILLER_30_83
*420 FILLER_30_85
*421 FILLER_30_97
*422 FILLER_31_105
*423 FILLER_31_111
*424 FILLER_31_113
*425 FILLER_31_125
*426 FILLER_31_137
*427 FILLER_31_149
*428 FILLER_31_15
*429 FILLER_31_27
*430 FILLER_31_3
*431 FILLER_31_39
*432 FILLER_31_51
*433 FILLER_31_55
*434 FILLER_31_57
*435 FILLER_31_69
*436 FILLER_31_81
*437 FILLER_31_93
*438 FILLER_32_109
*439 FILLER_32_121
*440 FILLER_32_133
*441 FILLER_32_139
*442 FILLER_32_141
*443 FILLER_32_15
*444 FILLER_32_153
*445 FILLER_32_27
*446 FILLER_32_29
*447 FILLER_32_3
*448 FILLER_32_41
*449 FILLER_32_53
*450 FILLER_32_65
*451 FILLER_32_77
*452 FILLER_32_83
*453 FILLER_32_85
*454 FILLER_32_97
*455 FILLER_33_105
*456 FILLER_33_111
*457 FILLER_33_113
*458 FILLER_33_125
*459 FILLER_33_137
*460 FILLER_33_149
*461 FILLER_33_15
*462 FILLER_33_27
*463 FILLER_33_3
*464 FILLER_33_39
*465 FILLER_33_51
*466 FILLER_33_55
*467 FILLER_33_57
*468 FILLER_33_69
*469 FILLER_33_81
*470 FILLER_33_93
*471 FILLER_34_109
*472 FILLER_34_121
*473 FILLER_34_133
*474 FILLER_34_139
*475 FILLER_34_141
*476 FILLER_34_15
*477 FILLER_34_155
*478 FILLER_34_27
*479 FILLER_34_29
*480 FILLER_34_3
*481 FILLER_34_41
*482 FILLER_34_53
*483 FILLER_34_65
*484 FILLER_34_77
*485 FILLER_34_83
*486 FILLER_34_85
*487 FILLER_34_97
*488 FILLER_35_105
*489 FILLER_35_111
*490 FILLER_35_113
*491 FILLER_35_125
*492 FILLER_35_137
*493 FILLER_35_149
*494 FILLER_35_15
*495 FILLER_35_27
*496 FILLER_35_3
*497 FILLER_35_39
*498 FILLER_35_51
*499 FILLER_35_55
*500 FILLER_35_57
*501 FILLER_35_69
*502 FILLER_35_81
*503 FILLER_35_93
*504 FILLER_36_109
*505 FILLER_36_121
*506 FILLER_36_133
*507 FILLER_36_139
*508 FILLER_36_141
*509 FILLER_36_15
*510 FILLER_36_153
*511 FILLER_36_27
*512 FILLER_36_29
*513 FILLER_36_3
*514 FILLER_36_41
*515 FILLER_36_53
*516 FILLER_36_65
*517 FILLER_36_77
*518 FILLER_36_83
*519 FILLER_36_85
*520 FILLER_36_97
*521 FILLER_37_105
*522 FILLER_37_111
*523 FILLER_37_113
*524 FILLER_37_125
*525 FILLER_37_137
*526 FILLER_37_149
*527 FILLER_37_15
*528 FILLER_37_27
*529 FILLER_37_3
*530 FILLER_37_39
*531 FILLER_37_51
*532 FILLER_37_55
*533 FILLER_37_57
*534 FILLER_37_69
*535 FILLER_37_81
*536 FILLER_37_93
*537 FILLER_38_109
*538 FILLER_38_121
*539 FILLER_38_133
*540 FILLER_38_139
*541 FILLER_38_141
*542 FILLER_38_15
*543 FILLER_38_153
*544 FILLER_38_27
*545 FILLER_38_29
*546 FILLER_38_3
*547 FILLER_38_41
*548 FILLER_38_53
*549 FILLER_38_65
*550 FILLER_38_77
*551 FILLER_38_83
*552 FILLER_38_85
*553 FILLER_38_97
*554 FILLER_39_105
*555 FILLER_39_111
*556 FILLER_39_113
*557 FILLER_39_125
*558 FILLER_39_137
*559 FILLER_39_149
*560 FILLER_39_15
*561 FILLER_39_27
*562 FILLER_39_3
*563 FILLER_39_39
*564 FILLER_39_51
*565 FILLER_39_55
*566 FILLER_39_57
*567 FILLER_39_69
*568 FILLER_39_81
*569 FILLER_39_93
*570 FILLER_3_105
*571 FILLER_3_111
*572 FILLER_3_113
*573 FILLER_3_125
*574 FILLER_3_148
*575 FILLER_3_15
*576 FILLER_3_160
*577 FILLER_3_27
*578 FILLER_3_3
*579 FILLER_3_39
*580 FILLER_3_51
*581 FILLER_3_55
*582 FILLER_3_57
*583 FILLER_3_69
*584 FILLER_3_81
*585 FILLER_3_93
*586 FILLER_40_109
*587 FILLER_40_121
*588 FILLER_40_133
*589 FILLER_40_139
*590 FILLER_40_141
*591 FILLER_40_15
*592 FILLER_40_153
*593 FILLER_40_27
*594 FILLER_40_29
*595 FILLER_40_3
*596 FILLER_40_41
*597 FILLER_40_53
*598 FILLER_40_65
*599 FILLER_40_77
*600 FILLER_40_83
*601 FILLER_40_85
*602 FILLER_40_97
*603 FILLER_41_105
*604 FILLER_41_111
*605 FILLER_41_113
*606 FILLER_41_125
*607 FILLER_41_137
*608 FILLER_41_149
*609 FILLER_41_15
*610 FILLER_41_27
*611 FILLER_41_3
*612 FILLER_41_39
*613 FILLER_41_51
*614 FILLER_41_55
*615 FILLER_41_57
*616 FILLER_41_69
*617 FILLER_41_81
*618 FILLER_41_93
*619 FILLER_42_109
*620 FILLER_42_121
*621 FILLER_42_133
*622 FILLER_42_139
*623 FILLER_42_141
*624 FILLER_42_15
*625 FILLER_42_153
*626 FILLER_42_27
*627 FILLER_42_29
*628 FILLER_42_3
*629 FILLER_42_41
*630 FILLER_42_53
*631 FILLER_42_65
*632 FILLER_42_77
*633 FILLER_42_83
*634 FILLER_42_85
*635 FILLER_42_97
*636 FILLER_43_105
*637 FILLER_43_111
*638 FILLER_43_113
*639 FILLER_43_125
*640 FILLER_43_137
*641 FILLER_43_149
*642 FILLER_43_15
*643 FILLER_43_27
*644 FILLER_43_3
*645 FILLER_43_39
*646 FILLER_43_51
*647 FILLER_43_55
*648 FILLER_43_57
*649 FILLER_43_69
*650 FILLER_43_81
*651 FILLER_43_93
*652 FILLER_44_109
*653 FILLER_44_121
*654 FILLER_44_133
*655 FILLER_44_139
*656 FILLER_44_141
*657 FILLER_44_15
*658 FILLER_44_153
*659 FILLER_44_27
*660 FILLER_44_29
*661 FILLER_44_3
*662 FILLER_44_41
*663 FILLER_44_53
*664 FILLER_44_65
*665 FILLER_44_77
*666 FILLER_44_83
*667 FILLER_44_85
*668 FILLER_44_97
*669 FILLER_45_105
*670 FILLER_45_111
*671 FILLER_45_113
*672 FILLER_45_125
*673 FILLER_45_137
*674 FILLER_45_149
*675 FILLER_45_15
*676 FILLER_45_27
*677 FILLER_45_3
*678 FILLER_45_39
*679 FILLER_45_51
*680 FILLER_45_55
*681 FILLER_45_57
*682 FILLER_45_69
*683 FILLER_45_81
*684 FILLER_45_93
*685 FILLER_46_109
*686 FILLER_46_121
*687 FILLER_46_133
*688 FILLER_46_139
*689 FILLER_46_141
*690 FILLER_46_15
*691 FILLER_46_153
*692 FILLER_46_27
*693 FILLER_46_29
*694 FILLER_46_3
*695 FILLER_46_41
*696 FILLER_46_53
*697 FILLER_46_65
*698 FILLER_46_77
*699 FILLER_46_83
*700 FILLER_46_85
*701 FILLER_46_97
*702 FILLER_47_105
*703 FILLER_47_111
*704 FILLER_47_113
*705 FILLER_47_125
*706 FILLER_47_137
*707 FILLER_47_149
*708 FILLER_47_15
*709 FILLER_47_27
*710 FILLER_47_3
*711 FILLER_47_39
*712 FILLER_47_51
*713 FILLER_47_55
*714 FILLER_47_57
*715 FILLER_47_69
*716 FILLER_47_81
*717 FILLER_47_93
*718 FILLER_48_109
*719 FILLER_48_121
*720 FILLER_48_133
*721 FILLER_48_139
*722 FILLER_48_141
*723 FILLER_48_15
*724 FILLER_48_153
*725 FILLER_48_27
*726 FILLER_48_3
*727 FILLER_48_35
*728 FILLER_48_47
*729 FILLER_48_59
*730 FILLER_48_71
*731 FILLER_48_83
*732 FILLER_48_85
*733 FILLER_48_97
*734 FILLER_49_109
*735 FILLER_49_113
*736 FILLER_49_125
*737 FILLER_49_137
*738 FILLER_49_149
*739 FILLER_49_15
*740 FILLER_49_27
*741 FILLER_49_3
*742 FILLER_49_39
*743 FILLER_49_51
*744 FILLER_49_55
*745 FILLER_49_57
*746 FILLER_49_69
*747 FILLER_49_81
*748 FILLER_49_97
*749 FILLER_4_109
*750 FILLER_4_121
*751 FILLER_4_133
*752 FILLER_4_139
*753 FILLER_4_141
*754 FILLER_4_15
*755 FILLER_4_153
*756 FILLER_4_27
*757 FILLER_4_29
*758 FILLER_4_3
*759 FILLER_4_41
*760 FILLER_4_53
*761 FILLER_4_65
*762 FILLER_4_77
*763 FILLER_4_83
*764 FILLER_4_85
*765 FILLER_4_97
*766 FILLER_50_109
*767 FILLER_50_121
*768 FILLER_50_133
*769 FILLER_50_139
*770 FILLER_50_141
*771 FILLER_50_15
*772 FILLER_50_153
*773 FILLER_50_27
*774 FILLER_50_29
*775 FILLER_50_3
*776 FILLER_50_41
*777 FILLER_50_53
*778 FILLER_50_65
*779 FILLER_50_77
*780 FILLER_50_83
*781 FILLER_50_85
*782 FILLER_50_97
*783 FILLER_51_105
*784 FILLER_51_111
*785 FILLER_51_113
*786 FILLER_51_125
*787 FILLER_51_137
*788 FILLER_51_149
*789 FILLER_51_19
*790 FILLER_51_31
*791 FILLER_51_43
*792 FILLER_51_55
*793 FILLER_51_57
*794 FILLER_51_69
*795 FILLER_51_7
*796 FILLER_51_81
*797 FILLER_51_93
*798 FILLER_52_109
*799 FILLER_52_121
*800 FILLER_52_133
*801 FILLER_52_139
*802 FILLER_52_141
*803 FILLER_52_15
*804 FILLER_52_153
*805 FILLER_52_27
*806 FILLER_52_29
*807 FILLER_52_3
*808 FILLER_52_41
*809 FILLER_52_53
*810 FILLER_52_65
*811 FILLER_52_77
*812 FILLER_52_83
*813 FILLER_52_85
*814 FILLER_52_97
*815 FILLER_53_107
*816 FILLER_53_111
*817 FILLER_53_113
*818 FILLER_53_125
*819 FILLER_53_137
*820 FILLER_53_149
*821 FILLER_53_15
*822 FILLER_53_27
*823 FILLER_53_3
*824 FILLER_53_39
*825 FILLER_53_51
*826 FILLER_53_55
*827 FILLER_53_57
*828 FILLER_53_69
*829 FILLER_53_81
*830 FILLER_53_95
*831 FILLER_54_110
*832 FILLER_54_113
*833 FILLER_54_125
*834 FILLER_54_137
*835 FILLER_54_141
*836 FILLER_54_15
*837 FILLER_54_153
*838 FILLER_54_27
*839 FILLER_54_29
*840 FILLER_54_3
*841 FILLER_54_41
*842 FILLER_54_53
*843 FILLER_54_57
*844 FILLER_54_69
*845 FILLER_54_81
*846 FILLER_54_85
*847 FILLER_54_93
*848 FILLER_54_98
*849 FILLER_5_105
*850 FILLER_5_111
*851 FILLER_5_113
*852 FILLER_5_125
*853 FILLER_5_137
*854 FILLER_5_149
*855 FILLER_5_15
*856 FILLER_5_27
*857 FILLER_5_3
*858 FILLER_5_39
*859 FILLER_5_51
*860 FILLER_5_55
*861 FILLER_5_57
*862 FILLER_5_69
*863 FILLER_5_81
*864 FILLER_5_93
*865 FILLER_6_109
*866 FILLER_6_121
*867 FILLER_6_133
*868 FILLER_6_139
*869 FILLER_6_141
*870 FILLER_6_15
*871 FILLER_6_153
*872 FILLER_6_27
*873 FILLER_6_29
*874 FILLER_6_3
*875 FILLER_6_41
*876 FILLER_6_53
*877 FILLER_6_65
*878 FILLER_6_77
*879 FILLER_6_83
*880 FILLER_6_85
*881 FILLER_6_97
*882 FILLER_7_105
*883 FILLER_7_111
*884 FILLER_7_113
*885 FILLER_7_125
*886 FILLER_7_137
*887 FILLER_7_149
*888 FILLER_7_15
*889 FILLER_7_27
*890 FILLER_7_3
*891 FILLER_7_39
*892 FILLER_7_51
*893 FILLER_7_55
*894 FILLER_7_57
*895 FILLER_7_69
*896 FILLER_7_81
*897 FILLER_7_93
*898 FILLER_8_109
*899 FILLER_8_121
*900 FILLER_8_133
*901 FILLER_8_139
*902 FILLER_8_141
*903 FILLER_8_15
*904 FILLER_8_153
*905 FILLER_8_27
*906 FILLER_8_29
*907 FILLER_8_3
*908 FILLER_8_41
*909 FILLER_8_53
*910 FILLER_8_65
*911 FILLER_8_77
*912 FILLER_8_83
*913 FILLER_8_85
*914 FILLER_8_97
*915 FILLER_9_105
*916 FILLER_9_111
*917 FILLER_9_113
*918 FILLER_9_125
*919 FILLER_9_137
*920 FILLER_9_149
*921 FILLER_9_15
*922 FILLER_9_23
*923 FILLER_9_3
*924 FILLER_9_31
*925 FILLER_9_43
*926 FILLER_9_55
*927 FILLER_9_57
*928 FILLER_9_69
*929 FILLER_9_81
*930 FILLER_9_93
*931 PHY_0
*932 PHY_1
*933 PHY_10
*934 PHY_100
*935 PHY_101
*936 PHY_102
*937 PHY_103
*938 PHY_104
*939 PHY_105
*940 PHY_106
*941 PHY_107
*942 PHY_108
*943 PHY_109
*944 PHY_11
*945 PHY_12
*946 PHY_13
*947 PHY_14
*948 PHY_15
*949 PHY_16
*950 PHY_17
*951 PHY_18
*952 PHY_19
*953 PHY_2
*954 PHY_20
*955 PHY_21
*956 PHY_22
*957 PHY_23
*958 PHY_24
*959 PHY_25
*960 PHY_26
*961 PHY_27
*962 PHY_28
*963 PHY_29
*964 PHY_3
*965 PHY_30
*966 PHY_31
*967 PHY_32
*968 PHY_33
*969 PHY_34
*970 PHY_35
*971 PHY_36
*972 PHY_37
*973 PHY_38
*974 PHY_39
*975 PHY_4
*976 PHY_40
*977 PHY_41
*978 PHY_42
*979 PHY_43
*980 PHY_44
*981 PHY_45
*982 PHY_46
*983 PHY_47
*984 PHY_48
*985 PHY_49
*986 PHY_5
*987 PHY_50
*988 PHY_51
*989 PHY_52
*990 PHY_53
*991 PHY_54
*992 PHY_55
*993 PHY_56
*994 PHY_57
*995 PHY_58
*996 PHY_59
*997 PHY_6
*998 PHY_60
*999 PHY_61
*1000 PHY_62
*1001 PHY_63
*1002 PHY_64
*1003 PHY_65
*1004 PHY_66
*1005 PHY_67
*1006 PHY_68
*1007 PHY_69
*1008 PHY_7
*1009 PHY_70
*1010 PHY_71
*1011 PHY_72
*1012 PHY_73
*1013 PHY_74
*1014 PHY_75
*1015 PHY_76
*1016 PHY_77
*1017 PHY_78
*1018 PHY_79
*1019 PHY_8
*1020 PHY_80
*1021 PHY_81
*1022 PHY_82
*1023 PHY_83
*1024 PHY_84
*1025 PHY_85
*1026 PHY_86
*1027 PHY_87
*1028 PHY_88
*1029 PHY_89
*1030 PHY_9
*1031 PHY_90
*1032 PHY_91
*1033 PHY_92
*1034 PHY_93
*1035 PHY_94
*1036 PHY_95
*1037 PHY_96
*1038 PHY_97
*1039 PHY_98
*1040 PHY_99
*1041 TAP_110
*1042 TAP_111
*1043 TAP_112
*1044 TAP_113
*1045 TAP_114
*1046 TAP_115
*1047 TAP_116
*1048 TAP_117
*1049 TAP_118
*1050 TAP_119
*1051 TAP_120
*1052 TAP_121
*1053 TAP_122
*1054 TAP_123
*1055 TAP_124
*1056 TAP_125
*1057 TAP_126
*1058 TAP_127
*1059 TAP_128
*1060 TAP_129
*1061 TAP_130
*1062 TAP_131
*1063 TAP_132
*1064 TAP_133
*1065 TAP_134
*1066 TAP_135
*1067 TAP_136
*1068 TAP_137
*1069 TAP_138
*1070 TAP_139
*1071 TAP_140
*1072 TAP_141
*1073 TAP_142
*1074 TAP_143
*1075 TAP_144
*1076 TAP_145
*1077 TAP_146
*1078 TAP_147
*1079 TAP_148
*1080 TAP_149
*1081 TAP_150
*1082 TAP_151
*1083 TAP_152
*1084 TAP_153
*1085 TAP_154
*1086 TAP_155
*1087 TAP_156
*1088 TAP_157
*1089 TAP_158
*1090 TAP_159
*1091 TAP_160
*1092 TAP_161
*1093 TAP_162
*1094 TAP_163
*1095 TAP_164
*1096 TAP_165
*1097 TAP_166
*1098 TAP_167
*1099 TAP_168
*1100 TAP_169
*1101 TAP_170
*1102 TAP_171
*1103 TAP_172
*1104 TAP_173
*1105 TAP_174
*1106 TAP_175
*1107 TAP_176
*1108 TAP_177
*1109 TAP_178
*1110 TAP_179
*1111 TAP_180
*1112 TAP_181
*1113 TAP_182
*1114 TAP_183
*1115 TAP_184
*1116 TAP_185
*1117 TAP_186
*1118 TAP_187
*1119 TAP_188
*1120 TAP_189
*1121 TAP_190
*1122 TAP_191
*1123 TAP_192
*1124 TAP_193
*1125 TAP_194
*1126 TAP_195
*1127 TAP_196
*1128 TAP_197
*1129 TAP_198
*1130 TAP_199
*1131 TAP_200
*1132 TAP_201
*1133 TAP_202
*1134 TAP_203
*1135 TAP_204
*1136 TAP_205
*1137 TAP_206
*1138 TAP_207
*1139 TAP_208
*1140 TAP_209
*1141 TAP_210
*1142 TAP_211
*1143 TAP_212
*1144 TAP_213
*1145 TAP_214
*1146 TAP_215
*1147 TAP_216
*1148 TAP_217
*1149 TAP_218
*1150 TAP_219
*1151 TAP_220
*1152 TAP_221
*1153 TAP_222
*1154 TAP_223
*1155 TAP_224
*1156 TAP_225
*1157 TAP_226
*1158 TAP_227
*1159 TAP_228
*1160 TAP_229
*1161 TAP_230
*1162 TAP_231
*1163 TAP_232
*1164 TAP_233
*1165 TAP_234
*1166 TAP_235
*1167 TAP_236
*1168 TAP_237
*1169 TAP_238
*1170 TAP_239
*1171 TAP_240
*1172 TAP_241
*1173 TAP_242
*1174 TAP_243
*1175 TAP_244
*1176 TAP_245
*1177 TAP_246
*1178 TAP_247
*1179 TAP_248
*1180 TAP_249
*1181 TAP_250
*1182 TAP_251
*1183 _10_
*1184 _11_
*1185 _12_
*1186 _13_
*1187 _14_
*1188 _15_
*1189 _16_
*1190 _17_
*1191 _18_
*1192 _19_
*1193 _20_
*1194 _21_
*1195 _22_
*1196 _23_
*1197 clkbuf_0_clk
*1198 clkbuf_1_0__f_clk
*1199 clkbuf_1_1__f_clk
*1200 input1
*1201 input2
*1202 output3
*1203 output4
*1204 output5
*1205 output6
*1206 repeater7

*PORTS
clk I
enable I
out[0] O
out[1] O
out[2] O
out[3] O
reset I

*D_NET *1 0.00805051
*CONN
*P clk I
*I *1197:A I *D sky130_fd_sc_hd__clkbuf_16
*CAP
1 clk 0.000821488
2 *1197:A 0.000183104
3 *1:12 0.00320376
4 *1:11 0.00384215
5 *1:12 *23:17 0
6 *1:12 *23:26 0
7 *1:12 *23:38 0
*RES
1 clk *1:11 2.9244 
2 *1:11 *1:12 57.6075 
3 *1:12 *1197:A 6.81 
*END

*D_NET *2 0.000711785
*CONN
*P enable I
*I *1200:A I *D sky130_fd_sc_hd__buf_2
*CAP
1 enable 0.000355893
2 *1200:A 0.000355893
3 *1200:A *23:8 0
*RES
1 enable *1200:A 10.35 
*END

*D_NET *3 0.000522412
*CONN
*P out[0] O
*I *1202:X O *D sky130_fd_sc_hd__buf_2
*CAP
1 out[0] 0.000261206
2 *1202:X 0.000261206
*RES
1 *1202:X out[0] 5.92503 
*END

*D_NET *4 0.00124892
*CONN
*P out[1] O
*I *1203:X O *D sky130_fd_sc_hd__buf_2
*CAP
1 out[1] 0.00062446
2 *1203:X 0.00062446
*RES
1 *1203:X out[1] 15.015 
*END

*D_NET *5 0.000415365
*CONN
*P out[2] O
*I *1204:X O *D sky130_fd_sc_hd__buf_2
*CAP
1 out[2] 0.000207683
2 *1204:X 0.000207683
*RES
1 *1204:X out[2] 4.90503 
*END

*D_NET *6 0.000851023
*CONN
*P out[3] O
*I *1205:X O *D sky130_fd_sc_hd__buf_2
*CAP
1 out[3] 0.000425512
2 *1205:X 0.000425512
*RES
1 *1205:X out[3] 11.715 
*END

*D_NET *7 0.000601379
*CONN
*P reset I
*I *1201:A I *D sky130_fd_sc_hd__clkbuf_2
*CAP
1 reset 0.000300689
2 *1201:A 0.000300689
3 *1201:A *16:8 0
*RES
1 reset *1201:A 5.3931 
*END

*D_NET *10 0.0022582
*CONN
*I *1193:D I *D sky130_fd_sc_hd__dfxtp_1
*I *1184:X O *D sky130_fd_sc_hd__o21a_1
*CAP
1 *1193:D 0.0011291
2 *1184:X 0.0011291
3 *1193:D *1184:A1 0
4 *1193:D *1193:CLK 0
5 *1193:D *1195:CLK 0
6 *1193:D *28:10 0
*RES
1 *1184:X *1193:D 27.6 
*END

*D_NET *11 0.00622164
*CONN
*I *1194:D I *D sky130_fd_sc_hd__dfxtp_2
*I *1187:Y O *D sky130_fd_sc_hd__nor3_1
*CAP
1 *1194:D 0.00143082
2 *1187:Y 0.00168
3 *11:11 0.00311082
4 *1194:D *1194:CLK 0
5 *11:11 *1187:B 0
6 *11:11 *1191:B1 0
*RES
1 *1187:Y *11:11 36.6725 
2 *11:11 *1194:D 26.7625 
*END

*D_NET *12 0.00537816
*CONN
*I *1195:D I *D sky130_fd_sc_hd__dfxtp_1
*I *1190:X O *D sky130_fd_sc_hd__o21a_1
*CAP
1 *1195:D 0
2 *1190:X 0.000242142
3 *12:11 0.00244694
4 *12:7 0.00268908
5 *12:7 *1190:A2 0
*RES
1 *1190:X *12:7 7.845 
2 *12:7 *12:11 48.6538 
3 *12:11 *1195:D 1.6 
*END

*D_NET *13 0.0089606
*CONN
*I *1196:D I *D sky130_fd_sc_hd__dfxtp_2
*I *1192:X O *D sky130_fd_sc_hd__o21a_1
*CAP
1 *1196:D 0.00125071
2 *1192:X 2.56688e-05
3 *13:8 0.00445463
4 *13:7 0.00322959
5 *1196:D *28:5 0
6 *1196:D *28:9 0
7 *13:7 *1192:A1 0
8 *13:8 *1184:A2 0
9 *13:8 *1202:A 0
10 *13:8 *19:8 0
*RES
1 *1192:X *13:7 4.05 
2 *13:7 *13:8 61.05 
3 *13:8 *1196:D 25.4737 
*END

*D_NET *14 0.00568631
*CONN
*I *1184:B1 I *D sky130_fd_sc_hd__o21a_1
*I *1183:Y O *D sky130_fd_sc_hd__a21oi_1
*CAP
1 *1184:B1 0.00140323
2 *1183:Y 0.00143993
3 *14:10 0.00284315
4 *1184:B1 *1184:A1 0
5 *14:10 *1183:A2 0
6 *14:10 *1199:A 0
*RES
1 *1183:Y *14:10 32.87 
2 *14:10 *1184:B1 26.2 
*END

*D_NET *15 0.000562905
*CONN
*I *1187:B I *D sky130_fd_sc_hd__nor3_1
*I *1185:Y O *D sky130_fd_sc_hd__a21oi_1
*CAP
1 *1187:B 0.000281452
2 *1185:Y 0.000281452
3 *1187:B *1191:B1 0
4 *11:11 *1187:B 0
*RES
1 *1185:Y *1187:B 12.225 
*END

*D_NET *16 0.0157737
*CONN
*I *1190:A2 I *D sky130_fd_sc_hd__o21a_1
*I *1187:C I *D sky130_fd_sc_hd__nor3_1
*I *1186:X O *D sky130_fd_sc_hd__and3_2
*CAP
1 *1190:A2 0.00124579
2 *1187:C 0.00236752
3 *1186:X 0
4 *16:17 0.00324078
5 *16:8 0.00464609
6 *16:5 0.00427356
7 *1190:A2 *1190:A1 0
8 *1190:A2 *1190:B1 0
9 *16:8 *23:43 0
10 *16:8 *26:28 0
11 *16:17 *26:36 0
12 *1201:A *16:8 0
13 *12:7 *1190:A2 0
*RES
1 *1186:X *16:5 3.6 
2 *16:5 *16:8 45.455 
3 *16:8 *1187:C 43.105 
4 *16:5 *16:17 40.1 
5 *16:17 *1190:A2 23.44 
*END

*D_NET *17 0.0137966
*CONN
*I *1192:A2 I *D sky130_fd_sc_hd__o21a_1
*I *1189:B I *D sky130_fd_sc_hd__nor2_1
*I *1191:A2 I *D sky130_fd_sc_hd__a21oi_2
*I *1188:X O *D sky130_fd_sc_hd__and4_2
*CAP
1 *1192:A2 0.00120943
2 *1189:B 2.56688e-05
3 *1191:A2 0.00189876
4 *1188:X 9.52765e-05
5 *17:10 0.00559358
6 *17:8 0.00497386
7 *1189:B *24:22 0
8 *1191:A2 *1191:A1 0
9 *1192:A2 *1192:A1 0
10 *1192:A2 *1205:A 0
11 *17:8 *1188:D 0
12 *17:8 *18:8 0
13 *17:10 *1183:A2 0
14 *17:10 *1186:C 0
15 *17:10 *1188:D 0
16 *17:10 *18:8 0
17 *17:10 *27:8 0
*RES
1 *1188:X *17:8 5.43 
2 *17:8 *17:10 69.975 
3 *17:10 *1191:A2 37.74 
4 *17:10 *1189:B 4.05 
5 *17:8 *1192:A2 24.75 
*END

*D_NET *18 0.00864535
*CONN
*I *1190:B1 I *D sky130_fd_sc_hd__o21a_1
*I *1189:Y O *D sky130_fd_sc_hd__nor2_1
*CAP
1 *1190:B1 8.4707e-05
2 *1189:Y 8.4707e-05
3 *18:8 0.00423797
4 *18:7 0.00423797
5 *1190:B1 *1190:A1 0
6 *18:7 *24:22 0
7 *18:8 *1188:D 0
8 *18:8 *1190:A1 0
9 *18:8 *22:6 0
10 *18:8 *25:6 0
11 *18:8 *25:34 0
12 *18:8 *27:19 0
13 *1190:A2 *1190:B1 0
14 *17:8 *18:8 0
15 *17:10 *18:8 0
*RES
1 *1189:Y *18:7 5.085 
2 *18:7 *18:8 79.155 
3 *18:8 *1190:B1 5.085 
*END

*D_NET *19 0.00849503
*CONN
*I *1192:B1 I *D sky130_fd_sc_hd__o21a_1
*I *1191:Y O *D sky130_fd_sc_hd__a21oi_2
*CAP
1 *1192:B1 8.4707e-05
2 *1191:Y 2.56688e-05
3 *19:8 0.00422184
4 *19:7 0.00416281
5 *1192:B1 *1192:A1 0
6 *19:7 *1191:A1 0
7 *19:8 *1184:A2 0
8 *19:8 *1191:B1 0
9 *19:8 *1202:A 0
10 *19:8 *24:22 0
11 *13:8 *19:8 0
*RES
1 *1191:Y *19:7 4.05 
2 *19:7 *19:8 78.9 
3 *19:8 *1192:B1 5.085 
*END

*D_NET *20 0.00295473
*CONN
*I *1199:A I *D sky130_fd_sc_hd__clkbuf_16
*I *1198:A I *D sky130_fd_sc_hd__clkbuf_16
*I *1197:X O *D sky130_fd_sc_hd__clkbuf_16
*CAP
1 *1199:A 0.000633898
2 *1198:A 0.0008178
3 *1197:X 2.56688e-05
4 *20:7 0.00147737
5 *1198:A *1196:CLK 0
6 *1198:A *24:11 0
7 *1199:A *1196:CLK 0
8 *1199:A *24:11 0
9 *14:10 *1199:A 0
*RES
1 *1197:X *20:7 4.05 
2 *20:7 *1198:A 18.975 
3 *20:7 *1199:A 15.195 
*END

*D_NET *21 0.00441425
*CONN
*I *1194:CLK I *D sky130_fd_sc_hd__dfxtp_2
*I *1196:CLK I *D sky130_fd_sc_hd__dfxtp_2
*I *1198:X O *D sky130_fd_sc_hd__clkbuf_16
*CAP
1 *1194:CLK 0.00110587
2 *1196:CLK 0.00110126
3 *1198:X 0
4 *21:4 0.00220713
5 *1196:CLK *24:11 0
6 *1194:D *1194:CLK 0
7 *1198:A *1196:CLK 0
8 *1199:A *1196:CLK 0
*RES
1 *1198:X *21:4 1.6 
2 *21:4 *1196:CLK 26.195 
3 *21:4 *1194:CLK 26.225 
*END

*D_NET *22 0.00358807
*CONN
*I *1195:CLK I *D sky130_fd_sc_hd__dfxtp_1
*I *1193:CLK I *D sky130_fd_sc_hd__dfxtp_1
*I *1199:X O *D sky130_fd_sc_hd__clkbuf_16
*CAP
1 *1195:CLK 0.00101549
2 *1193:CLK 0.000144601
3 *1199:X 0.000633942
4 *22:6 0.00179404
5 *1193:CLK *29:7 0
6 *1195:CLK *25:34 0
7 *1195:CLK *27:7 0
8 *1195:CLK *28:10 0
9 *22:6 *25:6 0
10 *22:6 *25:34 0
11 *22:6 *28:10 0
12 *1193:D *1193:CLK 0
13 *1193:D *1195:CLK 0
14 *18:8 *22:6 0
*RES
1 *1199:X *22:6 15.69 
2 *22:6 *1193:CLK 6.135 
3 *22:6 *1195:CLK 22.335 
*END

*D_NET *23 0.0219845
*CONN
*I *1186:A I *D sky130_fd_sc_hd__and3_2
*I *1188:A I *D sky130_fd_sc_hd__and4_2
*I *1184:A1 I *D sky130_fd_sc_hd__o21a_1
*I *1183:A1 I *D sky130_fd_sc_hd__a21oi_1
*I *1185:A1 I *D sky130_fd_sc_hd__a21oi_1
*I *1200:X O *D sky130_fd_sc_hd__buf_2
*CAP
1 *1186:A 0
2 *1188:A 0.001049
3 *1184:A1 0.00207233
4 *1183:A1 0.000458616
5 *1185:A1 0.00183617
6 *1200:X 0.00136601
7 *23:43 0.00265898
8 *23:38 0.00235667
9 *23:26 0.00406526
10 *23:17 0.00231207
11 *23:8 0.00380938
12 *1183:A1 *24:5 0
13 *1188:A *1188:C 0
14 *23:8 *26:11 0
15 *23:8 *26:28 0
16 *23:17 *26:28 0
17 *23:26 *26:28 0
18 *23:38 *1186:C 0
19 *23:38 *26:28 0
20 *23:38 *26:31 0
21 *23:43 *26:28 0
22 *23:43 *26:36 0
23 *1184:B1 *1184:A1 0
24 *1193:D *1184:A1 0
25 *1200:A *23:8 0
26 *1:12 *23:17 0
27 *1:12 *23:26 0
28 *1:12 *23:38 0
29 *16:8 *23:43 0
*RES
1 *1200:X *23:8 29.43 
2 *23:8 *1185:A1 35.79 
3 *23:8 *23:17 11.58 
4 *23:17 *1183:A1 11.64 
5 *23:17 *23:26 23.82 
6 *23:26 *1184:A1 39.93 
7 *23:26 *23:38 15.95 
8 *23:38 *23:43 34.705 
9 *23:43 *1188:A 19.99 
10 *23:38 *1186:A 1.6 
*END

*D_NET *24 0.00673689
*CONN
*I *1183:B1 I *D sky130_fd_sc_hd__a21oi_1
*I *1187:A I *D sky130_fd_sc_hd__nor3_1
*I *1191:B1 I *D sky130_fd_sc_hd__a21oi_2
*I *1189:A I *D sky130_fd_sc_hd__nor2_1
*I *1201:X O *D sky130_fd_sc_hd__clkbuf_2
*CAP
1 *1183:B1 0
2 *1187:A 0
3 *1191:B1 0.000460119
4 *1189:A 0
5 *1201:X 0.000793165
6 *24:22 0.00183948
7 *24:11 0.00211516
8 *24:5 0.00152897
9 *24:5 *1183:A2 0
10 *1183:A1 *24:5 0
11 *1187:B *1191:B1 0
12 *1189:B *24:22 0
13 *1196:CLK *24:11 0
14 *1198:A *24:11 0
15 *1199:A *24:11 0
16 *11:11 *1191:B1 0
17 *18:7 *24:22 0
18 *19:8 *1191:B1 0
19 *19:8 *24:22 0
*RES
1 *1201:X *24:5 15.505 
2 *24:5 *24:11 17.395 
3 *24:11 *1189:A 1.6 
4 *24:11 *24:22 26.435 
5 *24:22 *1191:B1 12.375 
6 *24:22 *1187:A 3.6 
7 *24:5 *1183:B1 1.6 
*END

*D_NET *25 0.0108895
*CONN
*I *1188:D I *D sky130_fd_sc_hd__and4_2
*I *1186:C I *D sky130_fd_sc_hd__and3_2
*I *1206:A I *D sky130_fd_sc_hd__clkbuf_2
*I *1183:A2 I *D sky130_fd_sc_hd__a21oi_1
*I *1193:Q O *D sky130_fd_sc_hd__dfxtp_1
*CAP
1 *1188:D 0.00158328
2 *1186:C 0.00123794
3 *1206:A 4.23535e-05
4 *1183:A2 0.00134671
5 *1193:Q 3.22476e-05
6 *25:34 0.00391906
7 *25:9 0.00149345
8 *25:6 0.00123448
9 *1186:C *26:31 0
10 *1186:C *27:8 0
11 *1188:D *27:8 0
12 *1206:A *29:7 0
13 *25:9 *29:7 0
14 *1195:CLK *25:34 0
15 *14:10 *1183:A2 0
16 *17:8 *1188:D 0
17 *17:10 *1183:A2 0
18 *17:10 *1186:C 0
19 *17:10 *1188:D 0
20 *18:8 *1188:D 0
21 *18:8 *25:6 0
22 *18:8 *25:34 0
23 *22:6 *25:6 0
24 *22:6 *25:34 0
25 *23:38 *1186:C 0
26 *24:5 *1183:A2 0
*RES
1 *1193:Q *25:6 4.215 
2 *25:6 *25:9 3.83 
3 *25:9 *1183:A2 30.515 
4 *25:9 *1206:A 2.395 
5 *25:6 *25:34 24.805 
6 *25:34 *1186:C 25.44 
7 *25:34 *1188:D 33.795 
*END

*D_NET *26 0.0211731
*CONN
*I *1186:B I *D sky130_fd_sc_hd__and3_2
*I *1188:C I *D sky130_fd_sc_hd__and4_2